<?xml version="1.0" encoding="iso-8859-1"?>
<!--
<ReadMe>

This XML can be imported in Altium Designer 14 using WEBENCH Altium Connector Extension and simulated using WEBENCH Simulation Engine.
The WEBENCH Altium Connector provides an interface to the Texas Instruments WEBENCH Designer Tools as well as to open WEBENCH exported Designs directly from inside Altium Designer.
It also includes the advanced WEBENCH Simulation Engine which can be used for offline circuit simulations.
You will need a activation key from TI to be able to use the WEBENCH Simulation Engine.

Installation guide:
http://www.ti.com/lit/SNVU481
You can download the WEBENCH extension from Altium Designer 14 Extensions.

Connector Details:
http://www.ti.com/lsds/ti/analog/webench/altiumconnector.page

More about WEBENCH simulation export to Altium:
http://www.ti.com/lsds/ti/analog/webench/simexportaltium.page

User Manual:
http://www.ti.com/lit/szzu007

</ReadMe>
-->
<schematic>
  <circuit>
    <text id="T_123456" position="400,-148" fontname="Times New Roman" fontsize="27" bold="0" color="#294901">
      <![CDATA[LM25118 Startup Simulation
(Exported from WEBENCH® Designer)]]>
    </text>
    <text id="T_123456" position="945,-148" fontname="Arial" fontsize="13" bold="1" italic="1" color="#278190" border="1">
      <![CDATA[Title :    LM25118MH/NOPB 8V-32V to 24.00V @ 2A
-------------------------------------------------------------------------
WEBENCH® Design ID                  :       3
Date of WEBENCH® Export           :       17-Dec-2018
Time of WEBENCH® Export          :       2:16:39 AM
WEBENCH® Export Tool Version :       E1.67-X2.27]]>
    </text>
    <component type="Rcomp" typeid="57" position="1510,1100" mirrored="0" nodematch="0" macrotype="2" orientation="0">
			<parameter idx="0" encrypted="0">
        <![CDATA[
***********************************
*     Created by WB Importer      *
***********************************
.subckt LM5118_BUCKBOOST_BLOCK_WITH_RRAMP_WB_LM5118_BUCKBOOST_BLOCK_WITH_RRAMP_Rcomp 1 2
Rcomp 1 2 23700.0

.ends]]>
      </parameter>
			<image>
				<label text="Rcomp" position="1528,1070" textroot=" " orientation="0" color=""/>  <hotzone points="-10,60,10,-60"/>
        <shape type="line" width="1" color="#0000ff" points="0,60,0,40"/>
        <shape type="line" width="1" color="#0000ff" points="0,40,-10,30"/>
        <shape type="line" width="1" color="#0000ff" points="-10,30,10,10"/>
        <shape type="line" width="1" color="#0000ff" points="10,10,-10,-10"/>
        <shape type="line" width="1" color="#0000ff" points="-10,-10,10,-30"/>
        <shape type="line" width="1" color="#0000ff" points="10,-30,0,-40"/>
        <shape type="line" width="1" color="#0000ff" points="0,-40,0,-60"/>
        <legend text="23.7 kOhm" position="10,-8" orientation="0" fontname="Arial" fontsize="12" bold="0" italic="0" color="#229922"/>
        <pin position="0,-60" dir="0" length="0" text="1"/>
        <pin position="0,60" dir="0" length="0" text="2"/>
      </image>
		</component>
    <component type="Rramp" typeid="57" position="1070,620" mirrored="0" nodematch="0" macrotype="2" orientation="0">
			<parameter idx="0" encrypted="0">
        <![CDATA[
***********************************
*     Created by WB Importer      *
***********************************
.subckt LM5118_BUCKBOOST_BLOCK_WITH_RRAMP_WB_LM5118_BUCKBOOST_BLOCK_WITH_RRAMP_Rramp 1 2
Rramp 1 2 105000.0

.ends]]>
      </parameter>
			<image>
				<label text="Rramp" position="1088,590" textroot=" " orientation="0" color=""/>  <hotzone points="-10,60,10,-60"/>
        <shape type="line" width="1" color="#0000ff" points="0,60,0,40"/>
        <shape type="line" width="1" color="#0000ff" points="0,40,-10,30"/>
        <shape type="line" width="1" color="#0000ff" points="-10,30,10,10"/>
        <shape type="line" width="1" color="#0000ff" points="10,10,-10,-10"/>
        <shape type="line" width="1" color="#0000ff" points="-10,-10,10,-30"/>
        <shape type="line" width="1" color="#0000ff" points="10,-30,0,-40"/>
        <shape type="line" width="1" color="#0000ff" points="0,-40,0,-60"/>
        <legend text="0.105 MOhm" position="10,-8" orientation="0" fontname="Arial" fontsize="12" bold="0" italic="0" color="#229922"/>
        <pin position="0,-60" dir="0" length="0" text="1"/>
        <pin position="0,60" dir="0" length="0" text="2"/>
      </image>
		</component>
    <component type="Coutx" typeid="57" position="3340,1030" mirrored="0" nodematch="0" macrotype="2" orientation="0">
			<parameter idx="0" encrypted="0">
        <![CDATA[
***********************************
*     Created by WB Importer      *
***********************************
.SUBCKT LM5118_BUCKBOOST_BLOCK_WITH_RRAMP_Coutx_WB_CAP_CERAMIC 2 4
R1 2 3 0.010974
C1 3 4 4.7E-7 IC=0.0
R3 5 4 5
R2 2 4 2.127659574468085E9
R4 3 26 2438666.666666667
R6 3 7 2438.666666666667
C5 7 1 1.4099999999999999E-8 IC=0.0
R7 3 10 243.8666666666667
C6 10 1 1.4099999999999999E-8 IC=0.0
R8 3 13 24.38666666666667
C7 13 1 1.4099999999999999E-8 IC=0.0
C2 26 1 1.4099999999999999E-8 IC=0.0
R9 3 28 243866.66666666672
C3 28 1 1.4099999999999999E-8 IC=0.0
R10 3 29 24386.66666666667
C4 29 1 1.4099999999999999E-8 IC=0.0
L8 1 5 15p
R24 1 5 0.032922
L12 5 4 1n
.ENDS]]>
      </parameter>
			<image>
				<label text="Coutx" position="3346,1008" textroot=" " orientation="0" color=""/>  <hotzone points="-24,60,24,-60"/>
        <shape type="line" width="Hair" color="#0000ff" points="0,-60,0,-40"/>
        <shape type="line" width="Hair" color="#0000ff" points="0,60,0,40"/>
        <shape type="line" width="1" color="#0000ff" points="24,-6,-24,-6"/>
        <shape type="line" width="1" color="#0000ff" points="0,40,0,6"/>
        <shape type="line" width="1" color="#0000ff" points="0,-6,0,-40"/>
        <shape type="line" width="1" color="#0000ff" points="24,6,-24,6"/>
        <legend text="0.47 uF" position="8,18" orientation="0" fontname="Arial" fontsize="12" bold="0" italic="0" color="#229922"/>
        <legend text="10.974 mOhm" position="8,32" orientation="0" fontname="Arial" fontsize="12" bold="0" italic="0" color="#229922"/>
        <legend text="" position="8,48" orientation="0" fontname="Arial" fontsize="12" bold="0" italic="0" color="#229922"/>
        <pin position="0,-60" dir="0" length="0" text="2"/>
        <pin position="0,60" dir="0" length="0" text="4"/>
      </image>
		</component>
    <component type="VOut" typeid="4" position="3500,720" mirrored="0" nodematch="0" macrotype="2" orientation="0">
			<parameter idx="0" encrypted="0">
			</parameter>
			<image>
				<label text="VOut" position="3500,690" textroot="VOut" orientation="0" color="#228822"/>
			</image>
		</component>
    <component type="D3" typeid="57" position="2650,960" mirrored="0" nodematch="0" macrotype="2" orientation="0">
			<parameter idx="0" encrypted="0">
        <![CDATA[*****************************************************************************
** LM5118_BUCKBOOST_BLOCK_WITH_RRAMP.WB_LM5118_BUCKBOOST_BLOCK_WITH_RRAMP.D3 Spice Model
*****************************************************************************
** (C) Copyright 2018 Texas Instruments Incorporated. All rights reserved.
** This model is designed as an aid for customers of Texas Instruments.
** TI and its licensors and suppliers make no warranties, either expressed
** or implied, with respect to this model, including the warranties of
** merchantability or fitness for a particular purpose. The model is
** provided solely on an "as is" basis. The entire risk as to its quality
** and performance is with the customer
*****************************************************************************
*****************************************************************************

.subckt LM5118_BUCKBOOST_BLOCK_WITH_RRAMP_WB_LM5118_BUCKBOOST_BLOCK_WITH_RRAMP_D3_ENCR A K
.include pspice://../LM5118_BUCKBOOST_BLOCK_WITH_RRAMP.WB_LM5118_BUCKBOOST_BLOCK_WITH_RRAMP.D3.enl
XCALL A K LM5118_BUCKBOOST_BLOCK_WITH_RRAMP_WB_LM5118_BUCKBOOST_BLOCK_WITH_RRAMP_D3 
.ENDS
]]>
      </parameter>
			<image>
				<label text="D3" position="2680,942" textroot=" " orientation="0" color=""/>  <hotzone points="20,-60,-20,60"/>
        <shape type="line" width="Hair" color="#0000ff" points="0,20,0,60"/>
        <shape type="line" width="Hair" color="#0000ff" points="0,-60,0,-20"/>
        <shape type="line" width="1" color="#0000ff" points="16,-26,20,-26"/>
        <shape type="line" width="1" color="#0000ff" points="20,-26,20,-20"/>
        <shape type="line" width="1" color="#0000ff" points="20,-20,-20,-20"/>
        <shape type="line" width="1" color="#0000ff" points="-20,-20,-20,-12"/>
        <shape type="line" width="1" color="#0000ff" points="-20,-12,-16,-12"/>
        <shape type="polygon" color="#0000ff" width="1" fill="4278222976" points="0,-20,20,20,-20,20"/>
        <legend text="3 A" position="36,0" orientation="0" fontname="Arial" fontsize="12" bold="0" italic="0" color="#229922"/>
        <legend text="0.5 V" position="36,16" orientation="0" fontname="Arial" fontsize="12" bold="0" italic="0" color="#229922"/>
        <pin position="0,60" dir="0" length="0" text="A"/>
        <pin position="0,-60" dir="0" length="0" text="K"/>
      </image>
		</component>
    <component type="Rfbb" typeid="57" position="1810,1560" mirrored="0" nodematch="0" macrotype="2" orientation="0">
			<parameter idx="0" encrypted="0">
        <![CDATA[
***********************************
*     Created by WB Importer      *
***********************************
.subckt LM5118_BUCKBOOST_BLOCK_WITH_RRAMP_WB_LM5118_BUCKBOOST_BLOCK_WITH_RRAMP_Rfbb 1 2
Rfbb 1 2 1000.0

.ends]]>
      </parameter>
			<image>
				<label text="Rfbb" position="1780,1536" textroot=" " orientation="0" color=""/>  <hotzone points="-60,-10,60,10"/>
        <shape type="line" width="1" color="#0000ff" points="-60,0,-40,0"/>
        <shape type="line" width="1" color="#0000ff" points="-40,0,-30,-10"/>
        <shape type="line" width="1" color="#0000ff" points="-30,-10,-10,10"/>
        <shape type="line" width="1" color="#0000ff" points="-10,10,10,-10"/>
        <shape type="line" width="1" color="#0000ff" points="10,-10,30,10"/>
        <shape type="line" width="1" color="#0000ff" points="30,10,40,0"/>
        <shape type="line" width="1" color="#0000ff" points="40,0,60,0"/>
        <legend text="1 kOhm" position="-36,20" orientation="0" fontname="Arial" fontsize="12" bold="0" italic="0" color="#229922"/>
        <pin position="60,0" dir="0" length="0" text="1"/>
        <pin position="-60,0" dir="0" length="0" text="2"/>
      </image>
		</component>
    <component type="VIn" typeid="4" position="650,260" mirrored="0" nodematch="0" macrotype="2" orientation="0">
			<parameter idx="0" encrypted="0">
			</parameter>
			<image>
				<label text="VIn" position="650,230" textroot="VIn" orientation="0" color="#228822"/>
			</image>
		</component>
    <component type="Cboot" typeid="57" position="2390,620" mirrored="0" nodematch="0" macrotype="2" orientation="0">
			<parameter idx="0" encrypted="0">
        <![CDATA[
***********************************
*     Created by WB Importer      *
***********************************
.subckt LM5118_BUCKBOOST_BLOCK_WITH_RRAMP_WB_LM5118_BUCKBOOST_BLOCK_WITH_RRAMP_Cboot 1 2
Cboot 1 2 1.0E-7

.ends]]>
      </parameter>
			<image>
				<label text="Cboot" position="2400,602" textroot=" " orientation="0" color=""/>  <hotzone points="-60,-24,60,24"/>
        <shape type="line" width="Hair" color="#0000ff" points="60,0,40,0"/>
        <shape type="line" width="Hair" color="#0000ff" points="-60,0,-40,0"/>
        <shape type="line" width="1" color="#0000ff" points="6,24,6,-24"/>
        <shape type="line" width="1" color="#0000ff" points="-40,0,-6,0"/>
        <shape type="line" width="1" color="#0000ff" points="6,0,40,0"/>
        <shape type="line" width="1" color="#0000ff" points="-6,24,-6,-24"/>
        <legend text="100 nF" position="18,10" orientation="0" fontname="Arial" fontsize="12" bold="0" italic="0" color="#229922"/>
        <legend text="" position="18,26" orientation="0" fontname="Arial" fontsize="12" bold="0" italic="0" color="#229922"/>
        <legend text="" position="18,40" orientation="0" fontname="Arial" fontsize="12" bold="0" italic="0" color="#229922"/>
        <pin position="60,0" dir="0" length="0" text="1"/>
        <pin position="-60,0" dir="0" length="0" text="2"/>
      </image>
		</component>
    <component type="Coutx2" typeid="57" position="3160,1030" mirrored="0" nodematch="0" macrotype="2" orientation="0">
			<parameter idx="0" encrypted="0">
        <![CDATA[
***********************************
*     Created by WB Importer      *
***********************************
.SUBCKT LM5118_BUCKBOOST_BLOCK_WITH_RRAMP_Coutx2_WB_CAP_CERAMIC 2 4
R1 2 3 0.010974
C1 3 4 4.7E-7 IC=0.0
R3 5 4 5
R2 2 4 2.127659574468085E9
R4 3 26 2438666.666666667
R6 3 7 2438.666666666667
C5 7 1 1.4099999999999999E-8 IC=0.0
R7 3 10 243.8666666666667
C6 10 1 1.4099999999999999E-8 IC=0.0
R8 3 13 24.38666666666667
C7 13 1 1.4099999999999999E-8 IC=0.0
C2 26 1 1.4099999999999999E-8 IC=0.0
R9 3 28 243866.66666666672
C3 28 1 1.4099999999999999E-8 IC=0.0
R10 3 29 24386.66666666667
C4 29 1 1.4099999999999999E-8 IC=0.0
L8 1 5 15p
R24 1 5 0.032922
L12 5 4 1n
.ENDS]]>
      </parameter>
			<image>
				<label text="Coutx2" position="3166,1008" textroot=" " orientation="0" color=""/>  <hotzone points="-24,60,24,-60"/>
        <shape type="line" width="Hair" color="#0000ff" points="0,-60,0,-40"/>
        <shape type="line" width="Hair" color="#0000ff" points="0,60,0,40"/>
        <shape type="line" width="1" color="#0000ff" points="24,-6,-24,-6"/>
        <shape type="line" width="1" color="#0000ff" points="0,40,0,6"/>
        <shape type="line" width="1" color="#0000ff" points="0,-6,0,-40"/>
        <shape type="line" width="1" color="#0000ff" points="24,6,-24,6"/>
        <legend text="0.47 uF" position="8,18" orientation="0" fontname="Arial" fontsize="12" bold="0" italic="0" color="#229922"/>
        <legend text="10.974 mOhm" position="8,32" orientation="0" fontname="Arial" fontsize="12" bold="0" italic="0" color="#229922"/>
        <legend text="" position="8,48" orientation="0" fontname="Arial" fontsize="12" bold="0" italic="0" color="#229922"/>
        <pin position="0,-60" dir="0" length="0" text="2"/>
        <pin position="0,60" dir="0" length="0" text="4"/>
      </image>
		</component>
    <component type="D2" typeid="57" position="3020,720" mirrored="0" nodematch="0" macrotype="2" orientation="0">
			<parameter idx="0" encrypted="0">
        <![CDATA[*****************************************************************************
** LM5118_BUCKBOOST_BLOCK_WITH_RRAMP.WB_LM5118_BUCKBOOST_BLOCK_WITH_RRAMP.D2 Spice Model
*****************************************************************************
** (C) Copyright 2018 Texas Instruments Incorporated. All rights reserved.
** This model is designed as an aid for customers of Texas Instruments.
** TI and its licensors and suppliers make no warranties, either expressed
** or implied, with respect to this model, including the warranties of
** merchantability or fitness for a particular purpose. The model is
** provided solely on an "as is" basis. The entire risk as to its quality
** and performance is with the customer
*****************************************************************************
*****************************************************************************

.subckt LM5118_BUCKBOOST_BLOCK_WITH_RRAMP_WB_LM5118_BUCKBOOST_BLOCK_WITH_RRAMP_D2_ENCR A K
.include pspice://../LM5118_BUCKBOOST_BLOCK_WITH_RRAMP.WB_LM5118_BUCKBOOST_BLOCK_WITH_RRAMP.D2.enl
XCALL A K LM5118_BUCKBOOST_BLOCK_WITH_RRAMP_WB_LM5118_BUCKBOOST_BLOCK_WITH_RRAMP_D2 
.ENDS
]]>
      </parameter>
			<image>
				<label text="D2" position="3000,680" textroot=" " orientation="0" color=""/>  <hotzone points="60,20,-60,-20"/>
        <shape type="line" width="Hair" color="#0000ff" points="-20,0,-60,0"/>
        <shape type="line" width="Hair" color="#0000ff" points="60,0,20,0"/>
        <shape type="line" width="1" color="#0000ff" points="26,16,26,20"/>
        <shape type="line" width="1" color="#0000ff" points="26,20,20,20"/>
        <shape type="line" width="1" color="#0000ff" points="20,20,20,-20"/>
        <shape type="line" width="1" color="#0000ff" points="20,-20,12,-20"/>
        <shape type="line" width="1" color="#0000ff" points="12,-20,12,-16"/>
        <shape type="polygon" color="#0000ff" width="1" fill="4278222976" points="20,0,-20,20,-20,-20"/>
        <legend text="7 A" position="-30,40" orientation="0" fontname="Arial" fontsize="12" bold="0" italic="0" color="#229922"/>
        <legend text="0.56 V" position="-30,56" orientation="0" fontname="Arial" fontsize="12" bold="0" italic="0" color="#229922"/>
        <pin position="-60,0" dir="0" length="0" text="A"/>
        <pin position="60,0" dir="0" length="0" text="K"/>
      </image>
		</component>
    <component type="Icout" typeid="34" position="3530,890" mirrored="0" nodematch="0" macrotype="2" orientation="0">
			<parameter idx="0" encrypted="0">
			</parameter>
			<image>
				<label text="Icout" position="3530,890" textroot=" " orientation="0" color=""/>  <hotzone points="6,-30,-6,30"/>
        <shape type="line" width="Hair" color="#0000ff" points="0,-30,0,30"/>
        <shape type="line" width="1" color="#0000ff" points="4,-6,-4,-6"/>
        <shape type="line" width="1" color="#0000ff" points="-4,-6,0,4"/>
        <shape type="line" width="1" color="#0000ff" points="0,4,4,-6"/>
        <pin position="0,-30" dir="0" length="0" text="1"/>
        <pin position="0,30" dir="0" length="0" text="2"/>
      </image>  <parameter idx="0" encrypted="0">
        <![CDATA[***********************************
*     Created by WB Importer      *
***********************************
.SUBCKT Icout 1 2 
V_Iprobe 1 2 0.0
.ENDS
]]>
      </parameter>
      <parameter idx="1" name="VALUE" value="0"/>
    </component>
    <component type="Vcomp" typeid="4" position="1590,940" mirrored="0" nodematch="0" macrotype="2" orientation="0">
			<parameter idx="0" encrypted="0">
			</parameter>
			<image>
				<label text="Vcomp" position="1590,910" textroot="Vcomp" orientation="0" color="#228822"/>
			</image>
		</component>
    <component type="Css" typeid="57" position="1220,1240" mirrored="0" nodematch="0" macrotype="2" orientation="0">
			<parameter idx="0" encrypted="0">
        <![CDATA[
***********************************
*     Created by WB Importer      *
***********************************
.subckt LM5118_BUCKBOOST_BLOCK_WITH_RRAMP_WB_LM5118_BUCKBOOST_BLOCK_WITH_RRAMP_Css 1 2
Css 1 2 2.2E-8

.ends]]>
      </parameter>
			<image>
				<label text="Css" position="1226,1218" textroot=" " orientation="0" color=""/>  <hotzone points="-24,60,24,-60"/>
        <shape type="line" width="Hair" color="#0000ff" points="0,-60,0,-40"/>
        <shape type="line" width="Hair" color="#0000ff" points="0,60,0,40"/>
        <shape type="line" width="1" color="#0000ff" points="24,-6,-24,-6"/>
        <shape type="line" width="1" color="#0000ff" points="0,40,0,6"/>
        <shape type="line" width="1" color="#0000ff" points="0,-6,0,-40"/>
        <shape type="line" width="1" color="#0000ff" points="24,6,-24,6"/>
        <legend text="22 nF" position="8,18" orientation="0" fontname="Arial" fontsize="12" bold="0" italic="0" color="#229922"/>
        <legend text="" position="8,32" orientation="0" fontname="Arial" fontsize="12" bold="0" italic="0" color="#229922"/>
        <legend text="" position="8,48" orientation="0" fontname="Arial" fontsize="12" bold="0" italic="0" color="#229922"/>
        <pin position="0,-60" dir="0" length="0" text="1"/>
        <pin position="0,60" dir="0" length="0" text="2"/>
      </image>
		</component>
    <component type="Renable" typeid="57" position="1650,400" mirrored="0" nodematch="0" macrotype="2" orientation="0">
			<parameter idx="0" encrypted="0">
        <![CDATA[
***********************************
*     Created by WB Importer      *
***********************************
.subckt LM5118_BUCKBOOST_BLOCK_WITH_RRAMP_WB_LM5118_BUCKBOOST_BLOCK_WITH_RRAMP_Renable 1 2
Renable 1 2 1050000.0

.ends]]>
      </parameter>
			<image>
				<label text="Renable" position="1668,370" textroot=" " orientation="0" color=""/>  <hotzone points="-10,60,10,-60"/>
        <shape type="line" width="1" color="#0000ff" points="0,60,0,40"/>
        <shape type="line" width="1" color="#0000ff" points="0,40,-10,30"/>
        <shape type="line" width="1" color="#0000ff" points="-10,30,10,10"/>
        <shape type="line" width="1" color="#0000ff" points="10,10,-10,-10"/>
        <shape type="line" width="1" color="#0000ff" points="-10,-10,10,-30"/>
        <shape type="line" width="1" color="#0000ff" points="10,-30,0,-40"/>
        <shape type="line" width="1" color="#0000ff" points="0,-40,0,-60"/>
        <legend text="1.05 MOhm" position="10,-8" orientation="0" fontname="Arial" fontsize="12" bold="0" italic="0" color="#229922"/>
        <pin position="0,-60" dir="0" length="0" text="1"/>
        <pin position="0,60" dir="0" length="0" text="2"/>
      </image>
		</component>
    <component type="Rsense" typeid="57" position="2490,1160" mirrored="0" nodematch="0" macrotype="2" orientation="0">
			<parameter idx="0" encrypted="0">
        <![CDATA[
***********************************
*     Created by WB Importer      *
***********************************
.subckt LM5118_BUCKBOOST_BLOCK_WITH_RRAMP_WB_LM5118_BUCKBOOST_BLOCK_WITH_RRAMP_Rsense 1 2
Rsense 1 2 0.015

.ends]]>
      </parameter>
			<image>
				<label text="Rsense" position="2508,1130" textroot=" " orientation="0" color=""/>  <hotzone points="-10,60,10,-60"/>
        <shape type="line" width="1" color="#0000ff" points="0,60,0,40"/>
        <shape type="line" width="1" color="#0000ff" points="0,40,-10,30"/>
        <shape type="line" width="1" color="#0000ff" points="-10,30,10,10"/>
        <shape type="line" width="1" color="#0000ff" points="10,10,-10,-10"/>
        <shape type="line" width="1" color="#0000ff" points="-10,-10,10,-30"/>
        <shape type="line" width="1" color="#0000ff" points="10,-30,0,-40"/>
        <shape type="line" width="1" color="#0000ff" points="0,-40,0,-60"/>
        <legend text="15 mOhm" position="10,-8" orientation="0" fontname="Arial" fontsize="12" bold="0" italic="0" color="#229922"/>
        <pin position="0,-60" dir="0" length="0" text="1"/>
        <pin position="0,60" dir="0" length="0" text="2"/>
      </image>
		</component>
    <component type="Cout" typeid="57" position="3530,1040" mirrored="0" nodematch="0" macrotype="2" orientation="0">
			<parameter idx="0" encrypted="0">
        <![CDATA[
***********************************
*     Created by WB Importer      *
***********************************
.SUBCKT LM5118_BUCKBOOST_BLOCK_WITH_RRAMP_Cout_WB_CAP_TANTALUM 13 2
C3 13 11 8.774209999999999E-6 IC=0.0
C4 13 3 4.387104999999999E-6 IC=0.0
C5 13 4 2.1935524999999997E-6 IC=0.0
R1 4 5 0.025
R2 3 6 0.018000000000000002
R3 11 7 0.035
R4 12 8 0.0464
C6 13 9 3.5096839999999995E-5 IC=0.0
R5 13 0 1000000.0
R6 9 10 0.125
L1 5 2 8.0E-9
L2 6 2 8.0E-9
L3 7 2 8.0E-9
L4 8 2 8.0E-9
L5 10 2 8.0E-9
R8 2 0 1000000.0
C2 13 12 1.7548419999999998E-5 IC=0.0
.ENDS]]>
      </parameter>
			<image>
				<label text="Cout" position="3536,1018" textroot=" " orientation="0" color=""/>  <hotzone points="-24,60,24,-60"/>
        <shape type="line" width="Hair" color="#0000ff" points="0,-60,0,-40"/>
        <shape type="line" width="Hair" color="#0000ff" points="0,60,0,40"/>
        <shape type="line" width="1" color="#0000ff" points="24,-6,-24,-6"/>
        <shape type="line" width="1" color="#0000ff" points="0,40,0,6"/>
        <shape type="line" width="1" color="#0000ff" points="0,-6,0,-40"/>
        <shape type="line" width="1" color="#0000ff" points="24,6,-24,6"/>
        <legend text="68 uF" position="8,18" orientation="0" fontname="Arial" fontsize="12" bold="0" italic="0" color="#229922"/>
        <legend text="20 mOhm" position="8,32" orientation="0" fontname="Arial" fontsize="12" bold="0" italic="0" color="#229922"/>
        <legend text="" position="8,48" orientation="0" fontname="Arial" fontsize="12" bold="0" italic="0" color="#229922"/>
        <pin position="0,-60" dir="0" length="0" text="13"/>
        <pin position="0,60" dir="0" length="0" text="2"/>
      </image>
		</component>
    <component type="Ccomp2" typeid="57" position="1510,1280" mirrored="0" nodematch="0" macrotype="2" orientation="0">
			<parameter idx="0" encrypted="0">
        <![CDATA[
***********************************
*     Created by WB Importer      *
***********************************
.subckt LM5118_BUCKBOOST_BLOCK_WITH_RRAMP_WB_LM5118_BUCKBOOST_BLOCK_WITH_RRAMP_Ccomp2 1 2
Ccomp2 1 2 4.7E-9

.ends]]>
      </parameter>
			<image>
				<label text="Ccomp2" position="1516,1258" textroot=" " orientation="0" color=""/>  <hotzone points="-24,60,24,-60"/>
        <shape type="line" width="Hair" color="#0000ff" points="0,-60,0,-40"/>
        <shape type="line" width="Hair" color="#0000ff" points="0,60,0,40"/>
        <shape type="line" width="1" color="#0000ff" points="24,-6,-24,-6"/>
        <shape type="line" width="1" color="#0000ff" points="0,40,0,6"/>
        <shape type="line" width="1" color="#0000ff" points="0,-6,0,-40"/>
        <shape type="line" width="1" color="#0000ff" points="24,6,-24,6"/>
        <legend text="4.7 nF" position="8,18" orientation="0" fontname="Arial" fontsize="12" bold="0" italic="0" color="#229922"/>
        <legend text="" position="8,32" orientation="0" fontname="Arial" fontsize="12" bold="0" italic="0" color="#229922"/>
        <legend text="" position="8,48" orientation="0" fontname="Arial" fontsize="12" bold="0" italic="0" color="#229922"/>
        <pin position="0,-60" dir="0" length="0" text="1"/>
        <pin position="0,60" dir="0" length="0" text="2"/>
      </image>
		</component>
    <component type="Cinx" typeid="57" position="1380,400" mirrored="0" nodematch="0" macrotype="2" orientation="0">
			<parameter idx="0" encrypted="0">
        <![CDATA[
***********************************
*     Created by WB Importer      *
***********************************
.subckt LM5118_BUCKBOOST_BLOCK_WITH_RRAMP_WB_LM5118_BUCKBOOST_BLOCK_WITH_RRAMP_Cinx 1 2
Cinx 1 2 1.0E-7

.ends]]>
      </parameter>
			<image>
				<label text="Cinx" position="1386,378" textroot=" " orientation="0" color=""/>  <hotzone points="-24,60,24,-60"/>
        <shape type="line" width="Hair" color="#0000ff" points="0,-60,0,-40"/>
        <shape type="line" width="Hair" color="#0000ff" points="0,60,0,40"/>
        <shape type="line" width="1" color="#0000ff" points="24,-6,-24,-6"/>
        <shape type="line" width="1" color="#0000ff" points="0,40,0,6"/>
        <shape type="line" width="1" color="#0000ff" points="0,-6,0,-40"/>
        <shape type="line" width="1" color="#0000ff" points="24,6,-24,6"/>
        <legend text="100 nF" position="8,18" orientation="0" fontname="Arial" fontsize="12" bold="0" italic="0" color="#229922"/>
        <legend text="39.064 mOhm" position="8,32" orientation="0" fontname="Arial" fontsize="12" bold="0" italic="0" color="#229922"/>
        <legend text="" position="8,48" orientation="0" fontname="Arial" fontsize="12" bold="0" italic="0" color="#229922"/>
        <pin position="0,-60" dir="0" length="0" text="1"/>
        <pin position="0,60" dir="0" length="0" text="2"/>
      </image>
		</component>
    <component type="Rfbt" typeid="57" position="2050,1560" mirrored="0" nodematch="0" macrotype="2" orientation="0">
			<parameter idx="0" encrypted="0">
        <![CDATA[
***********************************
*     Created by WB Importer      *
***********************************
.subckt LM5118_BUCKBOOST_BLOCK_WITH_RRAMP_WB_LM5118_BUCKBOOST_BLOCK_WITH_RRAMP_Rfbt 1 2
Rfbt 1 2 18700.0

.ends]]>
      </parameter>
			<image>
				<label text="Rfbt" position="2020,1536" textroot=" " orientation="0" color=""/>  <hotzone points="-60,-10,60,10"/>
        <shape type="line" width="1" color="#0000ff" points="-60,0,-40,0"/>
        <shape type="line" width="1" color="#0000ff" points="-40,0,-30,-10"/>
        <shape type="line" width="1" color="#0000ff" points="-30,-10,-10,10"/>
        <shape type="line" width="1" color="#0000ff" points="-10,10,10,-10"/>
        <shape type="line" width="1" color="#0000ff" points="10,-10,30,10"/>
        <shape type="line" width="1" color="#0000ff" points="30,10,40,0"/>
        <shape type="line" width="1" color="#0000ff" points="40,0,60,0"/>
        <legend text="18.7 kOhm" position="-36,20" orientation="0" fontname="Arial" fontsize="12" bold="0" italic="0" color="#229922"/>
        <pin position="60,0" dir="0" length="0" text="1"/>
        <pin position="-60,0" dir="0" length="0" text="2"/>
      </image>
		</component>
    <component type="Ruv2" typeid="57" position="810,1240" mirrored="0" nodematch="0" macrotype="2" orientation="0">
			<parameter idx="0" encrypted="0">
        <![CDATA[
***********************************
*     Created by WB Importer      *
***********************************
.subckt LM5118_BUCKBOOST_BLOCK_WITH_RRAMP_WB_LM5118_BUCKBOOST_BLOCK_WITH_RRAMP_Ruv2 1 2
Ruv2 1 2 8060.0

.ends]]>
      </parameter>
			<image>
				<label text="Ruv2" position="828,1210" textroot=" " orientation="0" color=""/>  <hotzone points="-10,60,10,-60"/>